Circuit: * Z:\home\mxmont\Documents\Universidad\TESIS\ChipVerification\PulseGenerator\kh\caracteristicas\mosfetcurves.asc

.OP point found by inspection.
.step vgs=0
.step vgs=0.1
.step vgs=0.2
.step vgs=0.3
.step vgs=0.4
.step vgs=0.5
.step vgs=0.6
.step vgs=0.7
.step vgs=0.8
.step vgs=0.9
.step vgs=1
.step vgs=1.1
.step vgs=1.2
.step vgs=1.3
.step vgs=1.4
.step vgs=1.5
.step vgs=1.6
.step vgs=1.7
.step vgs=1.8
.step vgs=1.9
.step vgs=2

Date: Thu Jun 24 18:21:25 2021
Total elapsed time: 1.692 seconds.

tnom = 27
temp = 27
method = trap
totiter = 126609
traniter = 0
tranpoints = 0
accept = 0
rejected = 0
matrix size = 8
fillins = 0
solver = Normal
Matrix Compiler1: 264 bytes object code size  0.2/0.1/[0.1]
Matrix Compiler2: 502 bytes object code size  0.1/0.2/[0.1]

