Circuit: * Z:\home\mxmont\Documents\Universidad\TESIS\ChipVerification\PulseGenerator\kh\caracteristicas\Tshmosfetcurves.asc

Warning: Multiple definitions of model "aons66402" Type: Vdmos1
WARNING: Node N005 is floating.
WARNING: Node N007 is floating.

Model "pmosx": Oxide thickness thinner than recommended for a level 2 MOSFET.
Instance "m2": Length shorter than recommended for a level 2 MOSFET.
Model "nmosx": Oxide thickness thinner than recommended for a level 2 MOSFET.
Instance "m1": Length shorter than recommended for a level 2 MOSFET.
.step vgs2=0.1
.step vgs2=0.08
.step vgs2=0.06
.step vgs2=0.04
.step vgs2=0.02
.step vgs2=-6.93889e-018
.step vgs2=-0.02
.step vgs2=-0.04
.step vgs2=-0.06
.step vgs2=-0.08
.step vgs2=-0.1
.step vgs2=-0.12
.step vgs2=-0.14
.step vgs2=-0.16
.step vgs2=-0.18
.step vgs2=-0.2
.step vgs2=-0.22
.step vgs2=-0.24
.step vgs2=-0.26
.step vgs2=-0.28
.step vgs2=-0.3
.step vgs2=-0.32
.step vgs2=-0.34
.step vgs2=-0.36
.step vgs2=-0.38
.step vgs2=-0.4
.step vgs2=-0.42
.step vgs2=-0.44
.step vgs2=-0.46
.step vgs2=-0.48
.step vgs2=-0.5
.step vgs2=-0.52
.step vgs2=-0.54
.step vgs2=-0.56
.step vgs2=-0.58
.step vgs2=-0.6
.step vgs2=-0.62
.step vgs2=-0.64
.step vgs2=-0.66
.step vgs2=-0.68
.step vgs2=-0.7
.step vgs2=-0.72
.step vgs2=-0.74
.step vgs2=-0.76
.step vgs2=-0.78
.step vgs2=-0.8
.step vgs2=-0.82
.step vgs2=-0.84
.step vgs2=-0.86
.step vgs2=-0.88
.step vgs2=-0.9
.step vgs2=-0.92
.step vgs2=-0.94
.step vgs2=-0.96
.step vgs2=-0.98
.step vgs2=-1

Date: Thu Jun 24 22:44:51 2021
Total elapsed time: 0.281 seconds.

tnom = 27
temp = 27
method = trap
totiter = 8000
traniter = 0
tranpoints = 0
accept = 0
rejected = 0
matrix size = 18
fillins = 0
solver = Normal
Matrix Compiler1: 692 bytes object code size  0.2/0.1/[0.1]
Matrix Compiler2: 1.09 KB object code size  0.2/0.2/[0.1]

