Circuit: * C:\users\mxmont\My Documents\Universidad\TESIS\ChipVerification\PulseGenerator\kh\GenAB.asc

Warning: Multiple definitions of model "aons66402" Type: Vdmos1
