Circuit: * C:\users\mxmont\My Documents\Universidad\TESIS\ChipVerification\PulseGenerator\kh\PulseGenABTop\Draft1.asc

Per .tran options, skipping operating point for transient analysis.

Date: Tue Jun 29 21:41:43 2021
Total elapsed time: 0.111 seconds.

tnom = 27
temp = 27
method = modified trap
totiter = 1266
traniter = 1266
tranpoints = 618
accept = 596
rejected = 22
matrix size = 10
fillins = 3
solver = Normal
Matrix Compiler1: 534 bytes object code size  0.2/0.1/[0.1]
Matrix Compiler2: 974 bytes object code size  0.2/0.2/[0.1]

