Circuit: * C:\users\mxmont\My Documents\Universidad\TESIS\ChipVerification\PulseGenerator\kh\PulseGenABTop\GenAB.asc

Warning: Multiple definitions of model "aons66402" Type: Vdmos1
WARNING: Node N007 is floating.
WARNING: Node N003 is floating.

Model "pmosx": Oxide thickness thinner than recommended for a level 2 MOSFET.
Instance "m2": Length shorter than recommended for a level 2 MOSFET.
Model "nmosx": Oxide thickness thinner than recommended for a level 2 MOSFET.
Instance "m7": Length shorter than recommended for a level 2 MOSFET.
Direct Newton iteration for .op point succeeded.
.step vdaq=0.1
Heightened Def Con from 2.14607e-011 ++++++++++++++++++++++++++to 3.0002e-009
Heightened Def Con from 3.0002e-009 ++++++++++++++++to 3.00023e-009
Heightened Def Con from 1.02938e-007 ++++++++++++++++++++++++++++++++to 1.03187e-007
Heightened Def Con from 1.03187e-007 ++++++++++++++++++++++++to 1.07187e-007
Heightened Def Con from 2.00021e-007 ++++++++++++++++++to 2.01037e-007
Heightened Def Con from 3.02931e-007 ++++++++++++++++++++++++++to 3.06931e-007
Heightened Def Con from 4.0002e-007 +++++++++++++++++++++++++to 4.0002e-007
Heightened Def Con from 4.0002e-007 ++++++++++++++++++++++++++to 4.0002e-007
Heightened Def Con from 4.0002e-007 ++++++++++++++++to 4.0002e-007
Heightened Def Con from 4.0002e-007 +++++++++++++++++++++++++to 4.0002e-007
Heightened Def Con from 4.0002e-007 ++++++++++++++++++++++++++to 4.0002e-007
Heightened Def Con from 4.0002e-007 ++++++++++++++++to 4.0002e-007
Heightened Def Con from 4.0002e-007 ++++++++++++++++++++++++++to 4.0302e-007
Heightened Def Con from 4.0302e-007 ++++++++++++++++to 4.04145e-007
Heightened Def Con from 5.02931e-007 +++++++++++++++++++++++++++++++to 5.06931e-007
Heightened Def Con from 6.00021e-007 ++++++++++++++++++++++++++to 6.03021e-007
Heightened Def Con from 6.03021e-007 ++++++++++++++++to 6.04146e-007
Heightened Def Con from 7.02932e-007 ++++++++++++++++++++++++++++++to 7.06932e-007
.step vdaq=0.3
.step vdaq=0.5
.step vdaq=0.7
.step vdaq=0.9
.step vdaq=1.1
.step vdaq=1.3
.step vdaq=1.5
.step vdaq=1.7
.step vdaq=1.9
.step vdaq=2.1
.step vdaq=2.3
.step vdaq=2.5
.step vdaq=2.7
.step vdaq=2.9
.step vdaq=3

Date: Wed Aug 18 18:42:36 2021
Total elapsed time: 2.191 seconds.

tnom = 27
temp = 27
method = modified trap
totiter = 11759
traniter = 11354
tranpoints = 2775
accept = 2230
rejected = 547
matrix size = 28
fillins = 0
solver = Normal
Matrix Compiler1: 1.25 KB object code size  0.3/0.2/[0.1]
Matrix Compiler2: 2.12 KB object code size  0.3/0.2/[0.2]

