Circuit: * Z:\home\mxmont\Documents\Universidad\TESIS\ChipVerification\PulseGenerator\kh\PulseGenABTop\GenAB.asc

Warning: Multiple definitions of model "aons66402" Type: Vdmos1
Control_sw4: both pins shorted together -- ignoring.
Control_sw1: both pins shorted together -- ignoring.
WARNING: Node N010 is floating.
WARNING: Node N002 is floating.

WARNING: Less than two connections to node N003.  This node is used by VDAC3.
WARNING: Less than two connections to node NC_01.  This node is used by B1.
Model "pmosx": Oxide thickness thinner than recommended for a level 2 MOSFET.
Instance "m2": Length shorter than recommended for a level 2 MOSFET.
Model "nmosx": Oxide thickness thinner than recommended for a level 2 MOSFET.
Instance "m7": Length shorter than recommended for a level 2 MOSFET.
Direct Newton iteration for .op point succeeded.
.step vdaq=0.1
Changing Tseed to 1e-013
Changing Tseed to 1e-015
Changing Tseed to 1e-012
Changing Tseed to 1e-016
Changing Tseed to 1e-011
Changing Tseed to 1e-017
Changing Tseed to 1e-010
Changing Tseed to 1e-018
Changing Tseed to 1e-009
Changing Tseed to 1e-019
Changing Tseed to 1e-008
Changing Tseed to 1e-020
Heightened Def Con from 0 Changing Tseed to 3e-010
Changing Tseed to 3e-012
Changing Tseed to 3e-009
Changing Tseed to 3e-013
Changing Tseed to 3e-008
Changing Tseed to 3e-014
Changing Tseed to 3e-007
to 3.01e-007
Heightened Def Con from 4e-007 ++++++++++++++++++++++++++to 4.07e-007
Heightened Def Con from 4.07e-007 ++++++++++++++++to 4.07002e-007
Heightened Def Con from 4.56e-007 to 4.59e-007
.step vdaq=0.3
.step vdaq=0.5
.step vdaq=0.7
.step vdaq=0.9
.step vdaq=1.1
.step vdaq=1.3
.step vdaq=1.5
.step vdaq=1.7
.step vdaq=1.9
.step vdaq=2.1
.step vdaq=2.3
.step vdaq=2.5
.step vdaq=2.7
.step vdaq=2.9
.step vdaq=3

Date: Wed Nov 17 09:19:06 2021
Total elapsed time: 0.947 seconds.

tnom = 27
temp = 27
method = modified trap
totiter = 5269
traniter = 5239
tranpoints = 1695
accept = 1450
rejected = 246
matrix size = 32
fillins = 0
solver = Normal
Matrix Compiler1: 1.31 KB object code size  0.3/0.1/[0.1]
Matrix Compiler2: off  [0.2]/0.3/0.2

