Circuit: * C:\users\mxmont\My Documents\Universidad\TESIS\ChipVerification\PulseGenerator\diff_OP.asc

WARNING: Less than two connections to node NC_01.  This node is used by B1.
Direct Newton iteration failed to find .op point.  (Use ".option noopiter" to skip.)
Starting Gmin stepping
Gmin = 10
Gmin = 1.07374
Gmin = 0.115292
Gmin = 0.0123794
Gmin = 0.00132923
Gmin = 0.000142725
Gmin = 1.5325e-005
Gmin = 1.6455e-006
Gmin = 1.76685e-007
Gmin = 1.89714e-008
Gmin = 2.03704e-009
Gmin = 2.18725e-010
Gmin = 2.34854e-011
Gmin = 2.52173e-012
Gmin = 2.70769e-013
Gmin = 0
Gmin stepping succeeded in finding the operating point.


Date: Mon Sep 27 18:47:59 2021
Total elapsed time: 0.168 seconds.

tnom = 27
temp = 27
method = modified trap
totiter = 5118
traniter = 4650
tranpoints = 1872
accept = 1398
rejected = 474
matrix size = 30
fillins = 17
solver = Normal
Thread vector: 13.5/7.8[2] 1.5/1.8[1] 2.8/2.7[1] 0.2/1.2[1]  2592/500
Matrix Compiler1: 2.49 KB object code size  0.5/0.3/[0.1]
Matrix Compiler2: 3.17 KB object code size  0.4/0.4/[0.4]

