Circuit: * C:\users\mxmont\My Documents\Universidad\TESIS\ChipVerification\PulseGenerator\Draft1.asc

WARNING: Less than two connections to node NC_01.  This node is used by B1.
Direct Newton iteration failed to find .op point.  (Use ".option noopiter" to skip.)
Starting Gmin stepping
Gmin = 10
Gmin = 1.07374
Gmin = 0.115292
Gmin = 0.0123794
Gmin = 0.00132923
Gmin = 0.000142725
Gmin = 1.5325e-005
Gmin = 1.6455e-006
Gmin = 1.76685e-007
Gmin = 1.89714e-008
Gmin = 2.03704e-009
Gmin = 2.18725e-010
Gmin = 2.34854e-011
Gmin = 2.52173e-012
Gmin = 2.70769e-013
Gmin = 0
Gmin stepping succeeded in finding the operating point.


Date: Mon Sep 27 18:27:12 2021
Total elapsed time: 0.187 seconds.

tnom = 27
temp = 27
method = modified trap
totiter = 10642
traniter = 10174
tranpoints = 4182
accept = 2978
rejected = 1204
matrix size = 30
fillins = 17
solver = Normal
Thread vector: 11.7/7.8[2] 1.5/1.8[1] 2.9/3.3[1] 0.2/1.1[1]  2592/500
Matrix Compiler1: 2.49 KB object code size  0.6/0.3/[0.1]
Matrix Compiler2: 3.17 KB object code size  0.4/0.5/[0.3]

