Circuit: * C:\users\mxmont\My Documents\Universidad\TESIS\ChipVerification\PulseGenerator\MultiSwitched_xC.asc

WARNING: Node NC_01 is floating.

WARNING: Less than two connections to node NC_01.  This node is used by I1.
WARNING: Less than two connections to node NC_02.  This node is used by B2.
WARNING: Less than two connections to node NC_03.  This node is used by B1.
Direct Newton iteration for .op point succeeded.

Date: Mon Jun 14 16:29:57 2021
Total elapsed time: 0.123 seconds.

tnom = 27
temp = 27
method = modified trap
totiter = 1529
traniter = 1497
tranpoints = 663
accept = 572
rejected = 91
matrix size = 43
fillins = 8
solver = Normal
Matrix Compiler1: 3.08 KB object code size  0.7/0.3/[0.2]
Matrix Compiler2: off  [0.3]/0.5/0.3

