Circuit: * C:\users\mxmont\My Documents\Universidad\TESIS\ChipVerification\PulseGenerator\switchedC.asc

Warning: Multiple definitions of model "aons66402" Type: Vdmos1
Direct Newton iteration for .op point succeeded.

Date: Mon May 17 16:09:42 2021
Total elapsed time: 0.088 seconds.

tnom = 27
temp = 27
method = modified trap
totiter = 523
traniter = 517
tranpoints = 145
accept = 111
rejected = 34
matrix size = 16
fillins = 2
solver = Normal
Matrix Compiler1: 860 bytes object code size  0.2/0.1/[0.1]
Matrix Compiler2: off  [0.1]/0.2/0.2

