Circuit: * C:\users\mxmont\My Documents\Universidad\TESIS\ChipVerification\PulseGenerator\switchedC_modified.asc

WARNING: Node NC_01 is floating.

WARNING: Less than two connections to node NC_01.  This node is used by I1.
WARNING: Less than two connections to node NC_02.  This node is used by B2.
WARNING: Less than two connections to node NC_03.  This node is used by B1.
WARNING: Less than two connections to node NC_04.  This node is used by B3.
WARNING: Less than two connections to node NC_05.  This node is used by B4.
Direct Newton iteration for .op point succeeded.

Date: Thu Jun 03 19:03:06 2021
Total elapsed time: 0.100 seconds.

tnom = 27
temp = 27
method = modified trap
totiter = 1775
traniter = 1743
tranpoints = 719
accept = 622
rejected = 97
matrix size = 51
fillins = 8
solver = Normal
Matrix Compiler1: 3.33 KB object code size  1.3/0.8/[0.3]
Matrix Compiler2: 3.82 KB object code size  0.7/1.0/[0.4]

