Circuit: * C:\users\mxmont\My Documents\Universidad\TESIS\ChipVerification\PulseGenerator\switchedC_modified.asc

WARNING: Node NC_01 is floating.

WARNING: Less than two connections to node NC_01.  This node is used by I1.
WARNING: Less than two connections to node NC_02.  This node is used by B1.
WARNING: Less than two connections to node NC_03.  This node is used by B2.
Direct Newton iteration for .op point succeeded.

Date: Sun May 23 00:02:41 2021
Total elapsed time: 0.039 seconds.

tnom = 27
temp = 27
method = modified trap
totiter = 258
traniter = 228
tranpoints = 107
accept = 102
rejected = 5
matrix size = 16
fillins = 0
solver = Normal
Matrix Compiler1: 664 bytes object code size  0.2/0.1/[0.1]
Matrix Compiler2: off  [0.1]/0.2/0.2

